Version 4
SHEET 1 880 680
WIRE 208 0 80 0
WIRE 80 48 80 0
WIRE 208 48 208 0
WIRE 288 128 208 128
WIRE -16 176 -112 176
WIRE 80 176 80 128
WIRE 80 176 48 176
WIRE 144 176 80 176
WIRE -112 208 -112 176
WIRE 80 224 80 176
FLAG 80 304 0
FLAG 208 304 0
FLAG -48 96 0
FLAG -48 16 +9VDC
FLAG -112 288 0
FLAG 80 0 +9VDC
FLAG 288 128 OUTPUT
FLAG -112 176 INPUT
SYMBOL npn 144 128 R0
SYMATTR InstName Q1
SYMATTR Value 2N3904
SYMBOL res 192 32 R0
SYMATTR InstName R1
SYMATTR Value 10k
SYMBOL res 192 208 R0
SYMATTR InstName R2
SYMATTR Value 390R
SYMBOL res 64 208 R0
SYMATTR InstName R3
SYMATTR Value 4.3k
SYMBOL res 64 32 R0
SYMATTR InstName R4
SYMATTR Value 43k
SYMBOL cap 48 160 R90
WINDOW 0 0 32 VBottom 2
WINDOW 3 32 32 VTop 2
SYMATTR InstName C1
SYMATTR Value 0.1µ
SYMBOL voltage -48 0 R0
WINDOW 123 0 0 Left 0
WINDOW 39 0 0 Left 0
SYMATTR InstName V1
SYMATTR Value 9
SYMBOL voltage -112 192 R0
WINDOW 123 0 0 Left 0
WINDOW 39 0 0 Left 0
SYMATTR InstName V2
SYMATTR Value SINE(0 0.1 1000)
TEXT -164 328 Left 2 !.tran 0.005s
