Version 4
SHEET 1 3124 904
WIRE 128 -128 -64 -128
WIRE 400 -128 192 -128
WIRE 672 -128 400 -128
WIRE 816 -128 672 -128
WIRE 672 -112 672 -128
WIRE 2752 -32 2528 -32
WIRE 2768 -32 2752 -32
WIRE 2976 -32 2944 -32
WIRE 3056 -32 2976 -32
WIRE -64 -16 -64 -128
WIRE 128 -16 -64 -16
WIRE 352 -16 192 -16
WIRE 2752 -16 2752 -32
WIRE 400 32 400 -128
WIRE -64 64 -64 -16
WIRE 2752 80 2752 64
WIRE 2896 80 2896 32
WIRE 2896 80 2752 80
WIRE 2976 80 2976 -32
WIRE 3056 80 3056 -32
WIRE 352 96 352 -16
WIRE 352 96 288 96
WIRE -64 160 -64 128
WIRE 32 160 -64 160
WIRE 400 160 400 96
WIRE 400 160 352 160
WIRE -64 192 -64 160
WIRE 400 192 400 160
WIRE 2752 192 2752 144
WIRE 2976 192 2976 144
WIRE 2976 192 2752 192
WIRE 3056 192 3056 144
WIRE 3056 192 2976 192
WIRE 3104 192 3056 192
WIRE 3104 208 3104 192
WIRE 32 224 16 224
WIRE 352 224 352 160
WIRE 16 240 16 224
WIRE 2752 240 2752 192
WIRE -64 288 -64 256
WIRE 32 288 -64 288
WIRE 352 288 288 288
WIRE 400 288 400 256
WIRE 400 288 352 288
WIRE -64 320 -64 288
WIRE 2752 320 2752 304
WIRE 2896 320 2752 320
WIRE 2976 336 2976 192
WIRE 3056 336 3056 192
WIRE 2896 352 2896 320
WIRE -64 416 -64 384
WIRE 128 416 -64 416
WIRE 352 416 352 288
WIRE 352 416 192 416
WIRE 2752 416 2752 400
WIRE 2752 416 2528 416
WIRE 2768 416 2752 416
WIRE 2976 416 2976 400
WIRE 2976 416 2944 416
WIRE 3056 416 3056 400
WIRE 3056 416 2976 416
WIRE -64 512 -64 416
WIRE 128 512 -64 512
WIRE 352 512 192 512
WIRE 384 512 352 512
WIRE 704 512 384 512
WIRE -64 544 -64 512
WIRE 352 544 352 512
FLAG 16 240 0
FLAG 352 224 0
FLAG 592 32 Vpos
FLAG 352 -16 Vpos
FLAG 592 112 0
FLAG 400 -128 Vpump+
FLAG 384 512 Vpump-
FLAG -64 608 0
FLAG 352 608 0
FLAG 816 -128 Vpump+D
FLAG 704 512 Vpump-D
FLAG 3104 208 0
FLAG 2528 -32 Vpump+D
FLAG 2528 416 Vpump-D
FLAG 3056 -32 VDC12P
FLAG 3056 416 VDC12N
SYMBOL PowerProducts\\LT1054 160 192 R0
SYMATTR InstName U1
SYMBOL cap -80 192 R0
SYMATTR InstName C1
SYMATTR Value 10µ
SYMATTR SpiceLine Rser=15.92
SYMBOL cap -80 64 R0
SYMATTR InstName C2
SYMATTR Value 10µ
SYMATTR SpiceLine Rser=15.92
SYMBOL cap -80 320 R0
SYMATTR InstName C3
SYMATTR Value 10µ
SYMATTR SpiceLine Rser=15.92
SYMBOL diode -80 544 R0
SYMATTR InstName D2
SYMATTR Value ICR
SYMBOL cap 336 544 R0
SYMATTR InstName C4
SYMATTR Value 100µ
SYMATTR SpiceLine V=25 Rser=1.86
SYMBOL cap 384 192 R0
SYMATTR InstName C5
SYMATTR Value 100µ
SYMATTR SpiceLine V=25 Rser=1.86
SYMBOL cap 384 32 R0
SYMATTR InstName C6
SYMATTR Value 100µ
SYMATTR SpiceLine V=25 Rser=1.86
SYMBOL voltage 592 16 R0
WINDOW 123 0 0 Left 0
WINDOW 39 24 124 Left 2
SYMATTR SpiceLine Rser=1m
SYMATTR InstName V1
SYMATTR Value 9
SYMBOL diode 128 -112 R270
WINDOW 0 32 32 VTop 2
WINDOW 3 0 32 VBottom 2
SYMATTR InstName D3
SYMATTR Value ICR
SYMBOL diode 192 -32 R90
WINDOW 0 0 32 VBottom 2
WINDOW 3 32 32 VTop 2
SYMATTR InstName D4
SYMATTR Value ICR
SYMBOL diode 128 432 R270
WINDOW 0 32 32 VTop 2
WINDOW 3 0 32 VBottom 2
SYMATTR InstName D5
SYMATTR Value 1N5817
SYMBOL diode 192 496 R90
WINDOW 0 0 32 VBottom 2
WINDOW 3 32 32 VTop 2
SYMATTR InstName D6
SYMATTR Value 1N5817
SYMBOL zener 2768 144 R180
WINDOW 0 24 64 Left 2
WINDOW 3 24 0 Left 2
SYMATTR InstName D1
SYMATTR Value MMBZ12VAL
SYMATTR Description Diode
SYMATTR Type diode
SYMBOL res 2736 -32 R0
SYMATTR InstName R3
SYMATTR Value 1.8k
SYMBOL zener 2768 304 R180
WINDOW 0 24 64 Left 2
WINDOW 3 24 0 Left 2
SYMATTR InstName D7
SYMATTR Value MMBZ12VAL
SYMATTR Description Diode
SYMATTR Type diode
SYMBOL res 2736 304 R0
SYMATTR InstName R4
SYMATTR Value 1.8k
SYMBOL npn 2848 32 R270
SYMATTR InstName Q1
SYMATTR Value 2N3904
SYMBOL cap 2960 80 R0
SYMATTR InstName C7
SYMATTR Value 47µ
SYMBOL cap 3040 80 R0
SYMATTR InstName C8
SYMATTR Value .01µ
SYMBOL cap 2960 336 R0
SYMATTR InstName C9
SYMATTR Value 47µ
SYMBOL cap 3040 336 R0
SYMATTR InstName C10
SYMATTR Value .01µ
SYMBOL pnp 2848 352 M90
SYMATTR InstName Q2
SYMBOL res 2864 400 R90
WINDOW 0 0 56 VBottom 2
WINDOW 3 32 56 VTop 2
SYMATTR InstName R5
SYMATTR Value 100R
SYMBOL res 2864 -48 R90
WINDOW 0 0 56 VBottom 2
WINDOW 3 32 56 VTop 2
SYMATTR InstName R6
SYMATTR Value 100R
TEXT -88 672 Left 2 !.tran 0.1s
TEXT -88 712 Left 2 !.model ICR D(Is=14.11n N=1.984 Rs=33.89m Ikf=94.81 Xti=3 Eg=1.11 Cjo=25.89p M=.44 Vj=.3245 Fc=.5 Bv=75 Ibv=10u Tt=5.7u Iave=1 Vpk=50 mfg=GI type=silicon)
TEXT -88 752 Left 2 ;Diode model taken from http://ltwiki.org/index.php?title=Standard.dio\nNote, this is not an ideal diode (as indicated by 'ICR' model name,\nbut this doesn't produce sensible output voltages
TEXT -96 848 Left 2 !.model 1N5817 D(Is=31.7u Rs=.051 N=1.373 Cjo=190p M=.3 Eg=.69 Xti=2 Iave=1 Vpk=20 mfg=OnSemi type=Schottky)
TEXT -96 888 Left 2 ;1N5817 provides higher negative output than 1N4001
TEXT 1064 -64 Left 2 ;560R load, negative switching diodes 1N5817, both rails 2x 1N5817 for add. voltage drop
TEXT 832 112 Left 2 ;ESTIMATED ESR FOR NICHICON UMA:\n-------------------------------------------------------------\nESR = TAN(th) / 2 * PI * f * C\n \n10u / 35V = 15.92R (!)\n100u / 25V = 1.86R\n \n14.77 / -14.705 for standard capacitors\n14.855 / 13.777 for 0.1R ESR capacitors 10u
TEXT 1472 200 Left 2 ;ESR 10u = 15.9 --> Vcc = 12.8V, Vdd = -9.6V
