Version 4
SHEET 1 1632 928
WIRE 592 64 576 64
WIRE 704 64 672 64
WIRE -784 112 -784 80
WIRE -672 112 -784 112
WIRE -656 112 -672 112
WIRE -560 112 -576 112
WIRE -464 112 -464 80
WIRE -464 112 -560 112
WIRE -432 112 -464 112
WIRE -336 112 -336 80
WIRE -336 112 -368 112
WIRE -32 144 -32 128
WIRE -784 176 -784 112
WIRE -672 176 -672 112
WIRE -560 176 -560 112
WIRE -464 176 -464 112
WIRE 64 176 16 176
WIRE 160 176 144 176
WIRE 208 176 208 48
WIRE 208 176 160 176
WIRE 256 176 208 176
WIRE 352 192 352 48
WIRE 352 192 320 192
WIRE 416 192 352 192
WIRE 464 192 416 192
WIRE 576 192 576 64
WIRE 576 192 544 192
WIRE 608 192 576 192
WIRE 256 208 208 208
WIRE 416 208 416 192
WIRE 704 208 704 64
WIRE 704 208 672 208
WIRE 752 208 704 208
WIRE 208 224 208 208
WIRE 608 224 576 224
WIRE 576 240 576 224
WIRE 160 256 160 176
WIRE -784 272 -784 256
WIRE -704 272 -784 272
WIRE -672 272 -672 240
WIRE -672 272 -704 272
WIRE -464 272 -464 240
WIRE -464 272 -672 272
WIRE -32 272 -32 224
WIRE -784 288 -784 272
WIRE -704 288 -704 272
WIRE -672 304 -672 272
WIRE -560 304 -560 240
WIRE -464 304 -464 272
WIRE 800 304 624 304
WIRE 624 336 624 304
WIRE 624 336 544 336
WIRE 688 336 624 336
WIRE 1376 352 1104 352
WIRE 1488 352 1376 352
WIRE -464 368 -464 352
WIRE 544 368 544 336
WIRE 688 368 688 336
WIRE 1616 368 1552 368
WIRE 128 384 96 384
WIRE 240 384 208 384
WIRE 352 384 352 368
WIRE 352 384 320 384
WIRE 1488 384 1440 384
WIRE -784 400 -784 368
WIRE -672 400 -672 368
WIRE -672 400 -784 400
WIRE -656 400 -672 400
WIRE -560 400 -560 368
WIRE -560 400 -576 400
WIRE -464 400 -464 368
WIRE -464 400 -560 400
WIRE 1376 400 1376 352
WIRE 96 416 96 384
WIRE -784 432 -784 400
WIRE -464 432 -464 400
WIRE 1280 432 1168 432
WIRE 416 448 416 288
WIRE 544 448 544 432
WIRE 544 448 416 448
WIRE 688 448 688 432
WIRE 752 448 752 288
WIRE 752 448 688 448
WIRE 544 464 544 448
WIRE 688 464 688 448
WIRE 1440 480 1440 384
WIRE 1616 480 1616 368
WIRE 1616 480 1440 480
WIRE 1168 496 1168 432
WIRE 1280 512 1280 432
WIRE 1376 512 1376 480
WIRE 800 528 800 304
WIRE 848 528 800 528
WIRE 944 528 912 528
WIRE 544 560 544 528
WIRE 624 560 544 560
WIRE 688 560 688 528
WIRE 688 560 624 560
WIRE 1456 560 1424 560
WIRE 1456 592 1456 560
WIRE 256 640 192 640
WIRE 800 640 800 528
WIRE 832 640 800 640
WIRE 384 656 320 656
WIRE 624 656 624 560
WIRE 624 656 384 656
WIRE 944 656 944 528
WIRE 944 656 896 656
WIRE 976 656 944 656
WIRE 1104 656 1104 352
WIRE 1104 656 1056 656
WIRE 192 672 192 640
WIRE 256 672 240 672
WIRE 832 672 800 672
WIRE 800 688 800 672
WIRE 240 784 240 672
WIRE 288 784 240 784
WIRE 384 784 384 656
WIRE 384 784 368 784
WIRE 1168 784 1168 576
WIRE 1168 784 384 784
WIRE 240 880 240 784
WIRE 288 880 240 880
WIRE 944 880 944 656
WIRE 944 880 368 880
FLAG 208 224 0
FLAG 96 416 0
FLAG -704 288 0
FLAG -784 80 V+
FLAG -464 80 V+d
FLAG -464 432 V-d
FLAG -784 432 V-
FLAG -32 128 V+d
FLAG -336 80 V+dd
FLAG 352 368 V+dd
FLAG 576 240 0
FLAG 192 672 0
FLAG 800 688 0
FLAG 1280 576 0
FLAG 288 160 V+dd
FLAG 640 176 V+dd
FLAG 288 624 V+dd
FLAG 864 624 V+dd
FLAG 288 224 V-d
FLAG 640 240 V-d
FLAG 864 688 V-d
FLAG 288 688 V-d
FLAG -32 272 0
FLAG 1456 592 0
FLAG 1520 400 V+dd
FLAG 1520 336 V-d
SYMBOL potentiometer -48 240 M180
SYMATTR InstName U1
SYMATTR Value Rt=25K set=.5
SYMBOL res 160 160 R90
WINDOW 0 0 56 VBottom 2
WINDOW 3 32 56 VTop 2
SYMATTR InstName R1
SYMATTR Value 47k
SYMBOL TL072 288 128 R0
SYMATTR InstName U2
SYMBOL res 304 32 R90
WINDOW 0 0 56 VBottom 2
WINDOW 3 32 56 VTop 2
SYMATTR InstName R2
SYMATTR Value 39k
SYMBOL diode 288 64 R270
WINDOW 0 32 32 VTop 2
WINDOW 3 0 32 VBottom 2
SYMATTR InstName D1
SYMBOL res 144 240 R0
SYMATTR InstName R3
SYMATTR Value 390k
SYMBOL potentiometer 224 400 M270
SYMATTR InstName U3
SYMATTR Value Rt=1K set=.5
SYMBOL res 336 368 R90
WINDOW 0 0 56 VBottom 2
WINDOW 3 32 56 VTop 2
SYMATTR InstName R4
SYMATTR Value 120k
SYMBOL voltage -784 160 R0
WINDOW 123 0 0 Left 0
WINDOW 39 0 0 Left 0
SYMATTR InstName V1
SYMATTR Value 15
SYMBOL voltage -784 272 R0
WINDOW 0 24 96 Left 2
WINDOW 3 24 16 Left 2
WINDOW 123 0 0 Left 0
WINDOW 39 0 0 Left 0
SYMATTR InstName V2
SYMATTR Value 15
SYMBOL cap -688 176 R0
SYMATTR InstName C1
SYMATTR Value 10n
SYMBOL cap -688 304 R0
SYMATTR InstName C2
SYMATTR Value 10n
SYMBOL res -560 96 R90
WINDOW 0 0 56 VBottom 2
WINDOW 3 32 56 VTop 2
SYMATTR InstName R5
SYMATTR Value 12R
SYMBOL res -672 416 R270
WINDOW 0 32 56 VTop 2
WINDOW 3 0 56 VBottom 2
SYMATTR InstName R6
SYMATTR Value 12R
SYMBOL cap -576 176 R0
SYMATTR InstName C3
SYMATTR Value 10n
SYMBOL cap -576 304 R0
SYMATTR InstName C4
SYMATTR Value 10n
SYMBOL cap -480 176 R0
SYMATTR InstName C5
SYMATTR Value 47µ
SYMBOL cap -480 304 R0
SYMATTR InstName C6
SYMATTR Value 47µ
SYMBOL diode -432 128 R270
WINDOW 0 32 32 VTop 2
WINDOW 3 0 32 VBottom 2
SYMATTR InstName D2
SYMBOL res 400 192 R0
SYMATTR InstName R7
SYMATTR Value 33k
SYMBOL res 560 176 R90
WINDOW 0 0 56 VBottom 2
WINDOW 3 32 56 VTop 2
SYMATTR InstName R8
SYMATTR Value 39k
SYMBOL TL072 640 144 R0
SYMATTR InstName U4
SYMBOL res 688 48 R90
WINDOW 0 0 56 VBottom 2
WINDOW 3 32 56 VTop 2
SYMATTR InstName R9
SYMATTR Value 39k
SYMBOL res 736 192 R0
SYMATTR InstName R10
SYMATTR Value 33k
SYMBOL diode 528 368 R0
SYMATTR InstName D3
SYMBOL diode 704 432 R180
WINDOW 0 24 64 Left 2
WINDOW 3 24 0 Left 2
SYMATTR InstName D4
SYMBOL diode 560 528 R180
WINDOW 0 24 64 Left 2
WINDOW 3 24 0 Left 2
SYMATTR InstName D5
SYMBOL diode 672 464 R0
SYMATTR InstName D6
SYMBOL TL072 288 592 R0
SYMATTR InstName U5
SYMBOL TL072 864 592 R0
SYMATTR InstName U6
SYMBOL res 384 768 R90
WINDOW 0 0 56 VBottom 2
WINDOW 3 32 56 VTop 2
SYMATTR InstName R11
SYMATTR Value 68k
SYMBOL res 384 864 R90
WINDOW 0 0 56 VBottom 2
WINDOW 3 32 56 VTop 2
SYMATTR InstName R12
SYMATTR Value 47k
SYMBOL cap 912 512 R90
WINDOW 0 0 32 VBottom 2
WINDOW 3 32 32 VTop 2
SYMATTR InstName C7
SYMATTR Value 470n
SYMBOL res 1072 640 R90
WINDOW 0 0 56 VBottom 2
WINDOW 3 32 56 VTop 2
SYMATTR InstName R13
SYMATTR Value 47k
SYMBOL res 1152 480 R0
SYMATTR InstName R14
SYMATTR Value 120k
SYMBOL cap 1264 512 R0
SYMATTR InstName C8
SYMATTR Value 470n
SYMBOL TL072 1520 432 M180
SYMATTR InstName U7
SYMBOL res 1360 384 R0
SYMATTR InstName R15
SYMATTR Value 47k
SYMBOL potentiometer 1360 496 R0
SYMATTR InstName U8
SYMATTR Value Rt=22K set=.5
TEXT -840 406 Left 2 !.tran 2s
